THERMO


! vib model: harm
! tors model: 1dhrf
! sym model: HCO_model
! sort freqs level: RUwb97xd/6-31g*
! sort sp    level: RUb2plypd3/cc-pvtz
! sort G(700.0 K) minimum
! energy level:
!     1.000 x RRccsd(t)-f12/cc-pvdz-f12//RUb2plypd3/cc-pvtz
! tors level: RUwb97xd/6-31g*//RUwb97xd/6-31g*
! CBH reference scheme: cbh2



! Hf(0 K) = 51.65, ! Hf(298 K) = 52.12 kcal/mol
H                       H   1               G     200.0    3000.0  1000.0      1
 2.49856327E+00 2.55065221E-06-1.88408471E-09 5.93128518E-13-6.85305400E-17    2
 2.54803860E+04-4.53664370E-01 2.49929216E+00 1.08315920E-06 3.56328243E-09    3
-9.26844763E-12 5.08428347E-15 2.54800099E+04-4.57956552E-01                   4


! vib model: harm
! tors model: 1dhrf
! sym model: HCO_model
! sort freqs level: RUwb97xd/6-31g*
! sort sp    level: RUb2plypd3/cc-pvtz
! sort G(700.0 K) minimum
! energy level:
!     1.000 x RRccsd(t)-f12/cc-pvdz-f12//RUb2plypd3/cc-pvtz
! tors level: RUwb97xd/6-31g*//RUwb97xd/6-31g*
! CBH reference scheme: cbh2



! Hf(0 K) = 0.00, ! Hf(298 K) = 5.07 kcal/mol
H2                      H   2               G     200.0    3000.0  1000.0      1
 3.56289739E+00-5.75967143E-04 8.76435142E-07-3.15641643E-10 3.72686451E-14    2
-9.99910124E+02-4.46953228E+00 3.48592437E+00 1.32210336E-04-4.20554770E-07    3
 4.64766452E-10-7.73540007E-14-1.01687337E+03-4.22898441E+00                   4


! vib model: harm
! tors model: 1dhrf
! sym model: HCO_model
! sort freqs level: RUwb97xd/6-31g*
! sort sp    level: RUb2plypd3/cc-pvtz
! sort G(700.0 K) minimum
! energy level:
!     1.000 x RRccsd(t)-f12/cc-pvdz-f12//RUb2plypd3/cc-pvtz
! tors level: RUwb97xd/6-31g*//RUwb97xd/6-31g*
! CBH reference scheme: cbh2



! Hf(0 K) = -30.84, ! Hf(298 K) = -32.27 kcal/mol
H2O2                    H   2O   2          G     200.0    3000.0  1000.0      1
 3.83175798E+00 5.48369571E-03-2.33632912E-06 4.85008146E-10-3.99813145E-14    2
-1.76639384E+04 4.64088639E+00 4.42872225E+00-2.26450461E-03 2.07766057E-05    3
-2.55500758E-08 1.00334039E-11-1.75970201E+04 2.86895121E+00                   4


! vib model: harm
! tors model: 1dhrf
! sym model: HCO_model
! sort freqs level: RUwb97xd/6-31g*
! sort sp    level: RUb2plypd3/cc-pvtz
! sort G(700.0 K) minimum
! energy level:
!     1.000 x RRccsd(t)-f12/cc-pvdz-f12//RUb2plypd3/cc-pvtz
! tors level: RUwb97xd/6-31g*//RUwb97xd/6-31g*
! CBH reference scheme: cbh2



! Hf(0 K) = -0.13, ! Hf(298 K) = -0.13 kcal/mol
O2                      O   2               G     200.0    3000.0  1000.0      1
 3.13826340E+00 1.87006882E-03-1.07672462E-06 2.89046212E-10-2.96950151E-14    2
-1.10584015E+03 6.20223010E+00 3.78045627E+00-3.11572602E-03 1.06407960E-05    3
-1.09016398E-08 3.78707230E-12-1.12665779E+03 3.66919024E+00                   4


! vib model: harm
! tors model: 1dhrf
! sym model: HCO_model
! sort freqs level: RUwb97xd/6-31g*
! sort sp    level: RUb2plypd3/cc-pvtz
! sort G(700.0 K) minimum
! energy level:
!     1.000 x RRccsd(t)-f12/cc-pvdz-f12//RUb2plypd3/cc-pvtz
! tors level: RUwb97xd/6-31g*//RUwb97xd/6-31g*
! CBH reference scheme: cbh2



! Hf(0 K) = -57.11, ! Hf(298 K) = -57.80 kcal/mol
H2O                     H   2O   1          G     200.0    3000.0  1000.0      1
 3.00381375E+00 2.27385380E-03-2.63123124E-07-1.00204847E-10 2.16389387E-14    2
-3.00026559E+04 5.07748411E+00 4.20788848E+00-2.18895672E-03 6.85087466E-06    3
-5.77533755E-09 1.84150964E-12-3.02918490E+04-8.97414637E-01                   4


! vib model: harm
! tors model: 1dhrf
! sym model: HCO_model
! sort freqs level: RUwb97xd/6-31g*
! sort sp    level: RUb2plypd3/cc-pvtz
! sort G(700.0 K) minimum
! energy level:
!     1.000 x RRccsd(t)-f12/cc-pvdz-f12//RUb2plypd3/cc-pvtz
! tors level: RUwb97xd/6-31g*//RUwb97xd/6-31g*
! CBH reference scheme: cbh2



! Hf(0 K) = 14.37, ! Hf(298 K) = 12.33 kcal/mol
C2H4-S58kzk             C   2H   4          G     200.0    3000.0  1000.0      1
 1.59192903E+00 1.56024182E-02-7.50279417E-06 1.75424085E-09-1.61845461E-13    2
 4.96734875E+03 1.26279655E+01 4.05671556E+00-8.39489191E-03 5.87364707E-05    3
-7.05125688E-08 2.73982229E-11 4.97615107E+03 3.67842049E+00                   4


! vib model: harm
! tors model: 1dhrf
! sym model: HCO_model
! sort freqs level: RUwb97xd/6-31g*
! sort sp    level: RUb2plypd3/cc-pvtz
! sort G(700.0 K) minimum
! energy level:
!     1.000 x RRccsd(t)-f12/cc-pvdz-f12//RUb2plypd3/cc-pvtz
! tors level: RUwb97xd/6-31g*//RUwb97xd/6-31g*
! CBH reference scheme: cbh2



! Hf(0 K) = -15.90, ! Hf(298 K) = -17.81 kcal/mol
CH4                     C   1H   4          G     200.0    3000.0  1000.0      1
-4.09591298E-02 1.37966610E-02-6.47380088E-06 1.47795587E-09-1.33351554E-13    2
-9.42413100E+03 1.89831155E+01 5.15820686E+00-1.37546681E-02 4.93470384E-05    3
-4.90525039E-08 1.69284320E-11-1.02343206E+04-4.71250067E+00                   4


! vib model: harm
! tors model: 1dhrf
! sym model: HCO_model
! sort freqs level: RUwb97xd/6-31g*
! sort sp    level: RUb2plypd3/cc-pvtz
! sort G(700.0 K) minimum
! energy level:
!     1.000 x RRccsd(t)-f12/cc-pvdz-f12//RUb2plypd3/cc-pvtz
! tors level: RUwb97xd/6-31g*//RUwb97xd/6-31g*
! CBH reference scheme: cbh2



! Hf(0 K) = 8.20, ! Hf(298 K) = 4.61 kcal/mol
C3ALK-2LTLsA            C   3H   6          G     200.0    3000.0  1000.0      1
 1.94964996E+00 2.50899626E-02-1.23595237E-05 2.95113846E-09-2.77231361E-13    2
 5.38108994E+02 1.35617806E+01 4.05541419E+00 1.21343199E-03 5.54568358E-05    3
-7.14309197E-08 2.80592336E-11 6.93378424E+02 6.69393059E+00                   4


! vib model: harm
! tors model: 1dhrf
! sym model: HCO_model
! sort freqs level: RUwb97xd/6-31g*
! sort sp    level: RUb2plypd3/cc-pvtz
! sort G(700.0 K) minimum
! energy level:
!     1.000 x RRccsd(t)-f12/cc-pvdz-f12//RUb2plypd3/cc-pvtz
! tors level: RUwb97xd/6-31g*//RUwb97xd/6-31g*
! CBH reference scheme: cbh2



! Hf(0 K) = 8.56, ! Hf(298 K) = 5.81 kcal/mol
C3ALD-Wv9uaE            C   3H   5O   1     G     200.0    3000.0  1000.0      1
 4.33873572E+00 2.22264441E-02-1.11016522E-05 2.68195027E-09-2.54403957E-13    2
 5.36697471E+02 6.17838374E+00 6.09436861E+00 1.73468782E-04 5.27018636E-05    3
-6.76311097E-08 2.65524827E-11 7.56601325E+02 9.38083820E-01                   4


! vib model: harm
! tors model: 1dhrf
! sym model: HCO_model
! sort freqs level: RUwb97xd/6-31g*
! sort sp    level: RUb2plypd3/cc-pvtz
! sort G(700.0 K) minimum
! energy level:
!     1.000 x RRccsd(t)-f12/cc-pvdz-f12//RUb2plypd3/cc-pvtz
! tors level: RUwb97xd/6-31g*//RUwb97xd/6-31g*
! CBH reference scheme: cbh2



! Hf(0 K) = 31.54, ! Hf(298 K) = 32.11 kcal/mol
O                       O   1               G     200.0    3000.0  1000.0      1
 2.59483570E+00-1.47120796E-04 9.20802639E-08-2.62537188E-11 2.81861859E-15    2
 1.53998203E+04 4.63389303E+00 3.16830791E+00-3.28278018E-03 6.65718476E-06    3
-6.14778662E-09 2.12143420E-12 1.53124698E+04 2.03645157E+00                   4


! vib model: harm
! tors model: 1dhrf
! sym model: HCO_model
! sort freqs level: RUwb97xd/6-31g*
! sort sp    level: RUb2plypd3/cc-pvtz
! sort G(700.0 K) minimum
! energy level:
!     1.000 x RRccsd(t)-f12/cc-pvdz-f12//RUb2plypd3/cc-pvtz
! tors level: RUwb97xd/6-31g*//RUwb97xd/6-31g*
! CBH reference scheme: cbh2



! Hf(0 K) = -37.45, ! Hf(298 K) = -43.88 kcal/mol
C4CETH-FCWSI1           C   4H   8O   1     G     200.0    3000.0  1000.0      1
 2.09870803E+00 4.07558381E-02-2.09056928E-05 5.15938331E-09-4.97808050E-13    2
-2.49977132E+04 1.08761319E+01 4.57621551E+00-1.13200680E-02 1.43113151E-04    3
-1.81764757E-07 7.20058868E-11-2.38799196E+04 8.01072355E+00                   4


! vib model: harm
! tors model: 1dhrf
! sym model: HCO_model
! sort freqs level: RUwb97xd/6-31g*
! sort sp    level: RUb2plypd3/cc-pvtz
! sort G(700.0 K) minimum
! energy level:
!     1.000 x RRccsd(t)-f12/cc-pvdz-f12//RUb2plypd3/cc-pvtz
! tors level: RUwb97xd/6-31g*//RUwb97xd/6-31g*
! CBH reference scheme: cbh2



! Hf(0 K) = -21.24, ! Hf(298 K) = -26.95 kcal/mol
C4CETH-2LKyxlA1         C   4H   8O   1     G     200.0    3000.0  1000.0      1
 4.34582520E+00 3.60539767E-02-1.81246905E-05 4.40207697E-09-4.19405586E-13    2
-1.67910673E+04 3.66470444E+00 4.70270333E+00 5.96836843E-03 8.59987069E-05    3
-1.18729403E-07 4.83174073E-11-1.57774330E+04 8.08301070E+00                   4


! vib model: harm
! tors model: 1dhrf
! sym model: HCO_model
! sort freqs level: RUwb97xd/6-31g*
! sort sp    level: RUb2plypd3/cc-pvtz
! sort G(700.0 K) minimum
! energy level:
!     1.000 x RRccsd(t)-f12/cc-pvdz-f12//RUb2plypd3/cc-pvtz
! tors level: RUwb97xd/6-31g*//RUwb97xd/6-31g*
! CBH reference scheme: cbh2



! Hf(0 K) = 3.45, ! Hf(298 K) = 2.76 kcal/mol
HO2                     H   1O   2          G     200.0    3000.0  1000.0      1
 3.43178014E+00 3.51831256E-03-1.56299111E-06 3.41983587E-10-2.98509679E-14    2
 1.71998383E+02 6.87136667E+00 4.36280718E+00-5.22323578E-03 2.19688131E-05    3
-2.47908127E-08 9.38166240E-12 1.68707170E+02 3.44042638E+00                   4


! vib model: harm
! tors model: 1dhrf
! sym model: HCO_model
! sort freqs level: RUwb97xd/6-31g*
! sort sp    level: RUb2plypd3/cc-pvtz
! sort G(700.0 K) minimum
! energy level:
!     1.000 x RRccsd(t)-f12/cc-pvdz-f12//RUb2plypd3/cc-pvtz
! tors level: RUwb97xd/6-31g*//RUwb97xd/6-31g*
! CBH reference scheme: cbh2



! Hf(0 K) = -4.13, ! Hf(298 K) = -7.27 kcal/mol
C3KET-Wv9qJr            C   3H   5O   1     G     200.0    3000.0  1000.0      1
 3.73896184E+00 2.31342690E-02-1.16508644E-05 2.83368267E-09-2.70278870E-13    2
-5.93457387E+03 8.98919395E+00 4.27519284E+00 6.89229610E-03 4.13470516E-05    3
-5.83529705E-08 2.36242002E-11-5.49802294E+03 9.44998764E+00                   4


! vib model: harm
! tors model: 1dhrf
! sym model: HCO_model
! sort freqs level: RUwb97xd/6-31g*
! sort sp    level: RUb2plypd3/cc-pvtz
! sort G(700.0 K) minimum
! energy level:
!     1.000 x RRccsd(t)-f12/cc-pvdz-f12//RUb2plypd3/cc-pvtz
! tors level: RUwb97xd/6-31g*//RUwb97xd/6-31g*
! CBH reference scheme: cbh2



! Hf(0 K) = -37.05, ! Hf(298 K) = -39.58 kcal/mol
C2H4O-UPQWKw            C   2H   4O   1     G     200.0    3000.0  1000.0      1
 1.96968421E+00 1.89764914E-02-9.59046395E-06 2.33768971E-09-2.23269079E-13    2
-2.14056975E+04 1.49742026E+01 5.09124347E+00-7.25382382E-03 5.74826392E-05    3
-6.71803388E-08 2.53304122E-11-2.15010294E+04 2.88925460E+00                   4


! vib model: harm
! tors model: 1dhrf
! sym model: HCO_model
! sort freqs level: RUwb97xd/6-31g*
! sort sp    level: RUb2plypd3/cc-pvtz
! sort G(700.0 K) minimum
! energy level:
!     1.000 x RRccsd(t)-f12/cc-pvdz-f12//RUb2plypd3/cc-pvtz
! tors level: RUwb97xd/6-31g*//RUwb97xd/6-31g*
! CBH reference scheme: cbh2



! Hf(0 K) = -25.27, ! Hf(298 K) = -26.19 kcal/mol
CH2O                    C   1H   2O   1     G     200.0    3000.0  1000.0      1
 1.42292781E+00 9.99497154E-03-5.10398592E-06 1.25312334E-09-1.20294518E-13    2
-1.40103874E+04 1.54200996E+01 4.80326286E+00-9.98645707E-03 3.74607880E-05    3
-3.80484696E-08 1.32176181E-11-1.44304503E+04 5.34666783E-01                   4


! vib model: harm
! tors model: 1dhrf
! sym model: HCO_model
! sort freqs level: RUwb97xd/6-31g*
! sort sp    level: RUb2plypd3/cc-pvtz
! sort G(700.0 K) minimum
! energy level:
!     1.000 x RRccsd(t)-f12/cc-pvdz-f12//RUb2plypd3/cc-pvtz
! tors level: RUwb97xd/6-31g*//RUwb97xd/6-31g*
! CBH reference scheme: cbh2



! Hf(0 K) = -74.38, ! Hf(298 K) = -78.49 kcal/mol
C4DKET-mZN0v8           C   4H   6O   2     G     200.0    3000.0  1000.0      1
 7.61201522E+00 2.90153764E-02-1.49296573E-05 3.70318131E-09-3.59302358E-13    2
-4.35105147E+04-1.10092281E+01 5.85752045E+00 9.49053734E-03 6.56387579E-05    3
-9.45893766E-08 3.86441742E-11-4.20772946E+04 3.36434067E+00                   4


! vib model: harm
! tors model: 1dhrf
! sym model: HCO_model
! sort freqs level: RUwb97xd/6-31g*
! sort sp    level: RUb2plypd3/cc-pvtz
! sort G(700.0 K) minimum
! energy level:
!     1.000 x RRccsd(t)-f12/cc-pvdz-f12//RUb2plypd3/cc-pvtz
! tors level: RUwb97xd/6-31g*//RUwb97xd/6-31g*
! CBH reference scheme: cbh2



! Hf(0 K) = -22.85, ! Hf(298 K) = -27.68 kcal/mol
C4AAOH-q3bsEZ           C   4H   7O   2     G     200.0    3000.0  1000.0      1
 1.16056688E+01 2.69058860E-02-1.35189470E-05 3.29988066E-09-3.16715229E-13    2
-1.92377270E+04-3.18592250E+01 2.69800251E+00 3.83962478E-02 1.69014275E-05    3
-5.93119203E-08 2.92920157E-11-1.64841623E+04 1.64406225E+01                   4


! vib model: harm
! tors model: 1dhrf
! sym model: HCO_model
! sort freqs level: RUwb97xd/6-31g*
! sort sp    level: RUb2plypd3/cc-pvtz
! sort G(700.0 K) minimum
! energy level:
!     1.000 x RRccsd(t)-f12/cc-pvdz-f12//RUb2plypd3/cc-pvtz
! tors level: RUwb97xd/6-31g*//RUwb97xd/6-31g*
! CBH reference scheme: cbh2



! Hf(0 K) = -24.57, ! Hf(298 K) = -30.30 kcal/mol
C4CETH-RvEsWvAB         C   4H   8O   1     G     200.0    3000.0  1000.0      1
 3.48429344E+00 3.71486178E-02-1.87238356E-05 4.55763206E-09-4.35023425E-13    2
-1.81755128E+04 7.02076381E+00 5.61856648E+00 2.84315343E-03 8.43299338E-05    3
-1.10131208E-07 4.33712388E-11-1.75973524E+04 2.33435550E+00                   4


! vib model: harm
! tors model: 1dhrf
! sym model: HCO_model
! sort freqs level: RUwb97xd/6-31g*
! sort sp    level: RUb2plypd3/cc-pvtz
! sort G(700.0 K) minimum
! energy level:
!     1.000 x RRccsd(t)-f12/cc-pvdz-f12//RUb2plypd3/cc-pvtz
! tors level: RUwb97xd/6-31g*//RUwb97xd/6-31g*
! CBH reference scheme: cbh2



! Hf(0 K) = 35.80, ! Hf(298 K) = 35.03 kcal/mol
CH3                     C   1H   3          G     200.0    3000.0  1000.0      1
 2.36963055E+00 7.12485746E-03-2.92571743E-06 5.80704170E-10-4.53117253E-14    2
 1.67276751E+04 8.13151137E+00 3.71264503E+00 2.90838243E-03 2.51020053E-06    3
-3.05659728E-09 1.02953230E-12 1.63752820E+04 1.29653487E+00                   4


! vib model: harm
! tors model: 1dhrf
! sym model: HCO_model
! sort freqs level: RUwb97xd/6-31g*
! sort sp    level: RUb2plypd3/cc-pvtz
! sort G(700.0 K) minimum
! energy level:
!     1.000 x RRccsd(t)-f12/cc-pvdz-f12//RUb2plypd3/cc-pvtz
! tors level: RUwb97xd/6-31g*//RUwb97xd/6-31g*
! CBH reference scheme: cbh2



! Hf(0 K) = -23.53, ! Hf(298 K) = -28.58 kcal/mol
C4AAOH-RyFBlaE          C   4H   7O   2     G     200.0    3000.0  1000.0      1
 1.22849290E+01 2.70227702E-02-1.40445140E-05 3.53275150E-09-3.47739119E-13    2
-2.02388177E+04-3.78404399E+01 5.14712739E+00 1.23239453E-02 9.03057091E-05    3
-1.36684314E-07 5.73557300E-11-1.70214387E+04 6.30261484E+00                   4


! vib model: harm
! tors model: 1dhrf
! sym model: HCO_model
! sort freqs level: RUwb97xd/6-31g*
! sort sp    level: RUb2plypd3/cc-pvtz
! sort G(700.0 K) minimum
! energy level:
!     1.000 x RRccsd(t)-f12/cc-pvdz-f12//RUb2plypd3/cc-pvtz
! tors level: RUwb97xd/6-31g*//RUwb97xd/6-31g*
! CBH reference scheme: cbh2



! Hf(0 K) = -49.68, ! Hf(298 K) = -51.01 kcal/mol
C2H2O2-uO9pAY           C   2H   2O   2     G     200.0    3000.0  1000.0      1
 6.46186975E+00 1.15381091E-02-6.39556573E-06 1.68167446E-09-1.70726831E-13    2
-2.85102730E+04-8.31065818E+00 4.72174906E+00-1.95198431E-04 4.57308082E-05    3
-6.20235807E-08 2.48815826E-11-2.73631046E+04 4.35179800E+00                   4


! vib model: harm
! tors model: 1dhrf
! sym model: HCO_model
! sort freqs level: RUwb97xd/6-31g*
! sort sp    level: RUb2plypd3/cc-pvtz
! sort G(700.0 K) minimum
! energy level:
!     1.000 x RRccsd(t)-f12/cc-pvdz-f12//RUb2plypd3/cc-pvtz
! tors level: RUwb97xd/6-31g*//RUwb97xd/6-31g*
! CBH reference scheme: cbh2



! Hf(0 K) = 5.46, ! Hf(298 K) = 3.71 kcal/mol
C2H3O-UPQQF7            C   2H   3O   1     G     200.0    3000.0  1000.0      1
 3.71655164E+00 1.40004707E-02-7.05100119E-06 1.71644542E-09-1.63920495E-13    2
 1.43603301E+01 5.69200095E+00 2.63511622E+00 1.04522759E-02 1.41579087E-05    3
-2.67581994E-08 1.17314447E-11 5.39844698E+02 1.26237390E+01                   4


! vib model: harm
! tors model: 1dhrf
! sym model: HCO_model
! sort freqs level: RUwb97xd/6-31g*
! sort sp    level: RUb2plypd3/cc-pvtz
! sort G(700.0 K) minimum
! energy level:
!     1.000 x RRccsd(t)-f12/cc-pvdz-f12//RUb2plypd3/cc-pvtz
! tors level: RUwb97xd/6-31g*//RUwb97xd/6-31g*
! CBH reference scheme: cbh2



! Hf(0 K) = -40.82, ! Hf(298 K) = -46.04 kcal/mol
C4ADOH-RbBPs7           C   4H   7O   2     G     200.0    3000.0  1000.0      1
 9.18637830E+00 4.32591500E-02-2.83521440E-05 8.29776612E-09-9.05091923E-13    2
-2.92724250E+04-2.59536659E+01 6.05789075E+00 3.80634272E-03 1.04719665E-04    3
-1.28527494E-07 4.54296536E-11-2.58354377E+04 2.59879667E+00                   4


! vib model: harm
! tors model: 1dhrf
! sym model: HCO_model
! sort freqs level: RUwb97xd/6-31g*
! sort sp    level: RUb2plypd3/cc-pvtz
! sort G(700.0 K) minimum
! energy level:
!     1.000 x RRccsd(t)-f12/cc-pvdz-f12//RUb2plypd3/cc-pvtz
! tors level: RUwb97xd/6-31g*//RUwb97xd/6-31g*
! CBH reference scheme: cbh2



! Hf(0 K) = -44.84, ! Hf(298 K) = -49.83 kcal/mol
C4ADOH-q3bYSe           C   4H   7O   2     G     200.0    3000.0  1000.0      1
 9.04193585E+00 3.78945185E-02-2.29278253E-05 6.37896555E-09-6.72214641E-13    2
-3.04627822E+04-2.17063172E+01 7.21126236E+00-9.46924246E-04 1.12869741E-04    3
-1.44213126E-07 5.47944267E-11-2.79225481E+04-1.78710965E+00                   4


! vib model: harm
! tors model: 1dhrf
! sym model: HCO_model
! sort freqs level: RUwb97xd/6-31g*
! sort sp    level: RUb2plypd3/cc-pvtz
! sort G(700.0 K) minimum
! energy level:
!     1.000 x RRccsd(t)-f12/cc-pvdz-f12//RUb2plypd3/cc-pvtz
! tors level: RUwb97xd/6-31g*//RUwb97xd/6-31g*
! CBH reference scheme: cbh2



! Hf(0 K) = -48.90, ! Hf(298 K) = -54.07 kcal/mol
C4AAOH-ZnVBlaE          C   4H   7O   2     G     200.0    3000.0  1000.0      1
 4.18823333E+00 4.40936910E-02-2.59429729E-05 7.07229234E-09-7.34183059E-13    2
-3.07895567E+04 4.90688543E+00 4.53724886E+00 2.05420649E-02 4.56049960E-05    3
-6.86729286E-08 2.66656796E-11-2.97557495E+04 8.67205447E+00                   4


! vib model: harm
! tors model: 1dhrf
! sym model: HCO_model
! sort freqs level: RUwb97xd/6-31g*
! sort sp    level: RUb2plypd3/cc-pvtz
! sort G(700.0 K) minimum
! energy level:
!     1.000 x RRccsd(t)-f12/cc-pvdz-f12//RUb2plypd3/cc-pvtz
! tors level: RUwb97xd/6-31g*//RUwb97xd/6-31g*
! CBH reference scheme: cbh2



! Hf(0 K) = -47.59, ! Hf(298 K) = -52.61 kcal/mol
C4KEOH-q3bHhi           C   4H   7O   2     G     200.0    3000.0  1000.0      1
 1.00039909E+01 3.58716507E-02-2.15910361E-05 6.00759220E-09-6.34470810E-13    2
-3.21555545E+04-2.66700425E+01 6.02759621E+00 7.53233148E-03 9.24859535E-05    3
-1.23623728E-07 4.72355743E-11-2.92013422E+04 3.34167257E+00                   4


! vib model: harm
! tors model: 1dhrf
! sym model: HCO_model
! sort freqs level: RUwb97xd/6-31g*
! sort sp    level: RUb2plypd3/cc-pvtz
! sort G(700.0 K) minimum
! energy level:
!     1.000 x RRccsd(t)-f12/cc-pvdz-f12//RUb2plypd3/cc-pvtz
! tors level: RUwb97xd/6-31g*//RUwb97xd/6-31g*
! CBH reference scheme: cbh2



! Hf(0 K) = 8.86, ! Hf(298 K) = 9.02 kcal/mol
OH                      H   1O   1          G     200.0    3000.0  1000.0      1
 3.23174189E+00 2.18045124E-04 3.81882610E-07-1.87167012E-10 2.49575416E-14    2
 3.62159534E+03 3.69894089E+00 4.11847910E+00-3.21372937E-03 6.48823467E-06    3
-5.77540955E-09 2.05188530E-12 3.40696976E+03-6.91808746E-01                   4


! vib model: harm
! tors model: 1dhrf
! sym model: HCO_model
! sort freqs level: RUwb97xd/6-31g*
! sort sp    level: RUb2plypd3/cc-pvtz
! sort G(700.0 K) minimum
! energy level:
!     1.000 x RRccsd(t)-f12/cc-pvdz-f12//RUb2plypd3/cc-pvtz
! tors level: RUwb97xd/6-31g*//RUwb97xd/6-31g*
! CBH reference scheme: cbh2



! Hf(0 K) = 31.30, ! Hf(298 K) = 28.68 kcal/mol
C2H5-S58eMK             C   2H   5          G     200.0    3000.0  1000.0      1
 1.61007832E+00 1.82924275E-02-8.78781880E-06 2.05173003E-09-1.88991284E-13    2
 1.31419860E+04 1.46796889E+01 4.32112594E+00-3.52217901E-03 4.75931814E-05    3
-5.76236948E-08 2.22089922E-11 1.29838344E+04 3.86885421E+00                   4


! vib model: harm
! tors model: 1dhrf
! sym model: HCO_model
! sort freqs level: RUwb97xd/6-31g*
! sort sp    level: RUb2plypd3/cc-pvtz
! sort G(700.0 K) minimum
! energy level:
!     1.000 x RRccsd(t)-f12/cc-pvdz-f12//RUb2plypd3/cc-pvtz
! tors level: RUwb97xd/6-31g*//RUwb97xd/6-31g*
! CBH reference scheme: cbh2



! Hf(0 K) = -23.47, ! Hf(298 K) = -29.59 kcal/mol
C4CETH-SqnyxlA0         C   4H   8O   1     G     200.0    3000.0  1000.0      1
 3.58859495E+00 3.80025063E-02-1.93202911E-05 4.73511583E-09-4.54416216E-13    2
-1.80739145E+04 5.23267424E+00 4.31930001E+00-7.25524560E-05 1.09771779E-04    3
-1.46604144E-07 5.91371271E-11-1.68812740E+04 9.26270032E+00                   4


! vib model: harm
! tors model: 1dhrf
! sym model: HCO_model
! sort freqs level: RUwb97xd/6-31g*
! sort sp    level: RUb2plypd3/cc-pvtz
! sort G(700.0 K) minimum
! energy level:
!     1.000 x RRccsd(t)-f12/cc-pvdz-f12//RUb2plypd3/cc-pvtz
! tors level: RUwb97xd/6-31g*//RUwb97xd/6-31g*
! CBH reference scheme: cbh2



! Hf(0 K) = -50.31, ! Hf(298 K) = -55.33 kcal/mol
C4AAOH-ZnVBlaZ          C   4H   7O   2     G     200.0    3000.0  1000.0      1
 7.89729121E+00 3.65078221E-02-2.08795624E-05 5.62595186E-09-5.81824380E-13    2
-3.25791954E+04-1.46941728E+01 5.88733983E+00 1.07518209E-02 7.37453073E-05    3
-1.00612622E-07 3.87978322E-11-3.05491546E+04 3.20158962E+00                   4


! vib model: harm
! tors model: 1dhrf
! sym model: HCO_model
! sort freqs level: RUwb97xd/6-31g*
! sort sp    level: RUb2plypd3/cc-pvtz
! sort G(700.0 K) minimum
! energy level:
!     1.000 x RRccsd(t)-f12/cc-pvdz-f12//RUb2plypd3/cc-pvtz
! tors level: RUwb97xd/6-31g*//RUwb97xd/6-31g*
! CBH reference scheme: cbh2



! Hf(0 K) = 9.79, ! Hf(298 K) = 9.88 kcal/mol
CHO                     C   1H   1O   1     G     200.0    3000.0  1000.0      1
 2.57619856E+00 5.33564439E-03-2.79647746E-06 7.00390416E-10-6.82842244E-14    2
 4.00266299E+03 1.08605066E+01 4.23235967E+00-3.36437514E-03 1.41202090E-05    3
-1.38365566E-08 4.59583479E-12 3.75902912E+03 3.34144653E+00                   4


! vib model: harm
! tors model: 1dhrf
! sym model: HCO_model
! sort freqs level: RUwb97xd/6-31g*
! sort sp    level: RUb2plypd3/cc-pvtz
! sort G(700.0 K) minimum
! energy level:
!     1.000 x RRccsd(t)-f12/cc-pvdz-f12//RUb2plypd3/cc-pvtz
! tors level: RUwb97xd/6-31g*//RUwb97xd/6-31g*
! CBH reference scheme: cbh2



! Hf(0 K) = -57.78, ! Hf(298 K) = -60.56 kcal/mol
C3DALD-8bQFbZ           C   3H   4O   2     G     200.0    3000.0  1000.0      1
 5.83481425E+00 2.21079570E-02-1.17061384E-05 2.96108639E-09-2.91287106E-13    2
-3.34420972E+04-1.04370527E+00 3.18570796E+00 2.09153551E-02 1.23679443E-05    3
-3.24026941E-08 1.48401188E-11-3.24067203E+04 1.44163086E+01                   4


! vib model: harm
! tors model: 1dhrf
! sym model: HCO_model
! sort freqs level: RUwb97xd/6-31g*
! sort sp    level: RUb2plypd3/cc-pvtz
! sort G(700.0 K) minimum
! energy level:
!     1.000 x RRccsd(t)-f12/cc-pvdz-f12//RUb2plypd3/cc-pvtz
! tors level: RUwb97xd/6-31g*//RUwb97xd/6-31g*
! CBH reference scheme: cbh2



! Hf(0 K) = -39.78, ! Hf(298 K) = -43.82 kcal/mol
C3ALD-Wv96xF            C   3H   6O   1     G     200.0    3000.0  1000.0      1
 2.96242105E+00 2.75618919E-02-1.39221612E-05 3.39316818E-09-3.24113482E-13    2
-2.43036272E+04 1.16831744E+01 4.97872797E+00 9.18606578E-04 6.36219276E-05    3
-8.20695099E-08 3.22214542E-11-2.39897650E+04 5.97742799E+00                   4


! vib model: harm
! tors model: 1dhrf
! sym model: HCO_model
! sort freqs level: RUwb97xd/6-31g*
! sort sp    level: RUb2plypd3/cc-pvtz
! sort G(700.0 K) minimum
! energy level:
!     1.000 x RRccsd(t)-f12/cc-pvdz-f12//RUb2plypd3/cc-pvtz
! tors level: RUwb97xd/6-31g*//RUwb97xd/6-31g*
! CBH reference scheme: cbh2



! Hf(0 K) = -21.24, ! Hf(298 K) = -26.95 kcal/mol
C4CETH-2LKyxlA0         C   4H   8O   1     G     200.0    3000.0  1000.0      1
 4.34582520E+00 3.60539767E-02-1.81246905E-05 4.40207697E-09-4.19405586E-13    2
-1.67910673E+04 3.66470444E+00 4.70270333E+00 5.96836843E-03 8.59987069E-05    3
-1.18729403E-07 4.83174073E-11-1.57774330E+04 8.08301070E+00                   4


! vib model: harm
! tors model: 1dhrf
! sym model: HCO_model
! sort freqs level: RUwb97xd/6-31g*
! sort sp    level: RUb2plypd3/cc-pvtz
! sort G(700.0 K) minimum
! energy level:
!     1.000 x RRccsd(t)-f12/cc-pvdz-f12//RUb2plypd3/cc-pvtz
! tors level: RUwb97xd/6-31g*//RUwb97xd/6-31g*
! CBH reference scheme: cbh2



! Hf(0 K) = -62.28, ! Hf(298 K) = -65.05 kcal/mol
C3KALD-2cwWKw           C   3H   4O   2     G     200.0    3000.0  1000.0      1
 7.21622505E+00 1.99110871E-02-1.04084247E-05 2.61629419E-09-2.56617321E-13    2
-3.62143273E+04-9.91264463E+00 5.02596228E+00 5.69103403E-03 5.48597532E-05    3
-7.87678906E-08 3.22697054E-11-3.48293156E+04 5.79959960E+00                   4


! vib model: harm
! tors model: 1dhrf
! sym model: HCO_model
! sort freqs level: RUwb97xd/6-31g*
! sort sp    level: RUb2plypd3/cc-pvtz
! sort G(700.0 K) minimum
! energy level:
!     1.000 x RRccsd(t)-f12/cc-pvdz-f12//RUb2plypd3/cc-pvtz
! tors level: RUwb97xd/6-31g*//RUwb97xd/6-31g*
! CBH reference scheme: cbh2



! Hf(0 K) = 2.18, ! Hf(298 K) = -2.76 kcal/mol
C4ALK-808sWvE           C   4H   8          G     200.0    3000.0  1000.0      1
 2.51266525E+00 3.42955496E-02-1.70483416E-05 4.10098827E-09-3.87574057E-13    2
-3.74644179E+03 1.11917512E+01 5.32655188E+00 4.75379323E-03 6.43260741E-05    3
-8.34496084E-08 3.25164767E-11-3.60741644E+03 1.56617899E+00                   4


! vib model: harm
! tors model: 1dhrf
! sym model: HCO_model
! sort freqs level: RUwb97xd/6-31g*
! sort sp    level: RUb2plypd3/cc-pvtz
! sort G(700.0 K) minimum
! energy level:
!     1.000 x RRccsd(t)-f12/cc-pvdz-f12//RUb2plypd3/cc-pvtz
! tors level: RUwb97xd/6-31g*//RUwb97xd/6-31g*
! CBH reference scheme: cbh2



! Hf(0 K) = -69.33, ! Hf(298 K) = -73.21 kcal/mol
C4KALD-q3b6xF           C   4H   6O   2     G     200.0    3000.0  1000.0      1
 7.62041902E+00 2.86607372E-02-1.45541122E-05 3.56579074E-09-3.42253634E-13    2
-4.06125719E+04-9.20542780E+00 4.52654414E+00 2.87003873E-02 9.81142434E-06    3
-3.45378084E-08 1.64500337E-11-3.94929253E+04 8.44701221E+00                   4


! vib model: harm
! tors model: 1dhrf
! sym model: HCO_model
! sort freqs level: RUwb97xd/6-31g*
! sort sp    level: RUb2plypd3/cc-pvtz
! sort G(700.0 K) minimum
! energy level:
!     1.000 x RRccsd(t)-f12/cc-pvdz-f12//RUb2plypd3/cc-pvtz
! tors level: RUwb97xd/6-31g*//RUwb97xd/6-31g*
! CBH reference scheme: cbh2



! Hf(0 K) = -1.09, ! Hf(298 K) = -2.68 kcal/mol
C2H3O-UPQcwB            C   2H   3O   1     G     200.0    3000.0  1000.0      1
 2.75391790E+00 1.45292888E-02-7.30350749E-06 1.77296599E-09-1.68802722E-13    2
-2.86751837E+03 1.21757155E+01 4.52729118E+00-2.42790952E-03 3.82085413E-05    3
-4.66654855E-08 1.79414251E-11-2.84540808E+03 5.74545436E+00                   4


! vib model: harm
! tors model: 1dhrf
! sym model: HCO_model
! sort freqs level: RUwb97xd/6-31g*
! sort sp    level: RUb2plypd3/cc-pvtz
! sort G(700.0 K) minimum
! energy level:
!     1.000 x RRccsd(t)-f12/cc-pvdz-f12//RUb2plypd3/cc-pvtz
! tors level: RUwb97xd/6-31g*//RUwb97xd/6-31g*
! CBH reference scheme: cbh2



! Hf(0 K) = -4.42, ! Hf(298 K) = -7.67 kcal/mol
C3ALOX-gDNeMK           C   3H   5O   1     G     200.0    3000.0  1000.0      1
 4.39664321E+00 2.27320018E-02-1.13745138E-05 2.75483658E-09-2.62044046E-13    2
-6.34646994E+03 3.86583883E+00 2.43703266E+00 2.02338396E-02 1.30617646E-05    3
-3.21216346E-08 1.46359215E-11-5.54367973E+03 1.55833710E+01                   4


! vib model: harm
! tors model: 1dhrf
! sym model: HCO_model
! sort freqs level: RUwb97xd/6-31g*
! sort sp    level: RUb2plypd3/cc-pvtz
! sort G(700.0 K) minimum
! energy level:
!     1.000 x RRccsd(t)-f12/cc-pvdz-f12//RUb2plypd3/cc-pvtz
! tors level: RUwb97xd/6-31g*//RUwb97xd/6-31g*
! CBH reference scheme: cbh2



! Hf(0 K) = 3.39, ! Hf(298 K) = -1.64 kcal/mol
C4ALK-808sWvZ           C   4H   8          G     200.0    3000.0  1000.0      1
 1.67586815E+00 3.53389894E-02-1.76086166E-05 4.24352896E-09-4.01607424E-13    2
-3.04171333E+03 1.60394198E+01 6.45234836E+00-1.05652572E-02 1.06293245E-04    3
-1.28215021E-07 4.92828471E-11-2.98894425E+03-1.27028444E+00                   4


! vib model: harm
! tors model: 1dhrf
! sym model: HCO_model
! sort freqs level: RUwb97xd/6-31g*
! sort sp    level: RUb2plypd3/cc-pvtz
! sort G(700.0 K) minimum
! energy level:
!     1.000 x RRccsd(t)-f12/cc-pvdz-f12//RUb2plypd3/cc-pvtz
! tors level: RUwb97xd/6-31g*//RUwb97xd/6-31g*
! CBH reference scheme: cbh2



! Hf(0 K) = -26.98, ! Hf(298 K) = -32.46 kcal/mol
C4CETH-RvEsWvAA0        C   4H   8O   1     G     200.0    3000.0  1000.0      1
 5.48848548E+00 3.45265031E-02-1.72655630E-05 4.17620411E-09-3.96623367E-13    2
-1.97514783E+04-3.24717735E+00 4.06814912E+00 2.11126091E-02 4.18041860E-05    3
-7.05269849E-08 3.00710470E-11-1.87318481E+04 7.72732344E+00                   4


! vib model: harm
! tors model: 1dhrf
! sym model: HCO_model
! sort freqs level: RUwb97xd/6-31g*
! sort sp    level: RUb2plypd3/cc-pvtz
! sort G(700.0 K) minimum
! energy level:
!     1.000 x RRccsd(t)-f12/cc-pvdz-f12//RUb2plypd3/cc-pvtz
! tors level: RUwb97xd/6-31g*//RUwb97xd/6-31g*
! CBH reference scheme: cbh2



! Hf(0 K) = -30.26, ! Hf(298 K) = -35.04 kcal/mol
C4AKOX-q3b8pfA0         C   4H   7O   2     G     200.0    3000.0  1000.0      1
 9.51133904E+00 3.00324553E-02-1.52467086E-05 3.73000602E-09-3.57384435E-13    2
-2.20398768E+04-1.98889497E+01 2.55331189E-01 6.45590164E-02-6.05241603E-05    3
 2.64624974E-08-3.08297745E-12-2.00926699E+04 2.52653532E+01                   4


! vib model: harm
! tors model: 1dhrf
! sym model: HCO_model
! sort freqs level: RUwb97xd/6-31g*
! sort sp    level: RUb2plypd3/cc-pvtz
! sort G(700.0 K) minimum
! energy level:
!     1.000 x RRccsd(t)-f12/cc-pvdz-f12//RUb2plypd3/cc-pvtz