THERMO





C4ALK-808sWv            C   4H   8          G     200.0    1000.0  3000.0      1
 2.04434790E+00 3.49270405E-02-1.74021987E-05 4.19332673E-09-3.96811612E-13    2
-3.92793440E+03 1.45603022E+01 6.23326980E+00-6.54731936E-03 9.54728725E-05    3
-1.16890205E-07 4.50970872E-11-3.83259685E+03-3.51218265E-01                   4





C4CETH-RvEsWv           C   4H   8O   1     G     200.0    1000.0  3000.0      1
 3.75479487E+00 3.68492981E-02-1.85747644E-05 4.52149551E-09-4.31581834E-13    2
-1.98404075E+04 6.12315928E+00 5.31163766E+00 5.31516266E-03 7.94830710E-05    3
-1.06172173E-07 4.21815438E-11-1.91653357E+04 4.11869603E+00                   4





OH                      C   4H   8O   1     G     200.0    1000.0  3000.0      1
 3.59481396E+00 3.79952010E-02-1.93166856E-05 4.73431372E-09-4.54351344E-13    2
-1.88047079E+04 5.18969381E+00 4.32085317E+00-1.42723645E-04 1.10030584E-04    3
-1.46920106E-07 5.92646839E-11-1.76077436E+04 9.26039665E+00                   4





RO2                     C   4H   9O   2     G     200.0    1000.0  3000.0      1
 7.15325597E+00 3.84164962E-02-1.92514797E-05 4.66355946E-09-4.43390682E-13    2
-1.43381601E+04-6.11270866E+00 6.93923230E+00 1.42519726E-02 6.80197280E-05    3
-9.96905752E-08 4.10180835E-11-1.33360384E+04 3.13977230E-01                   4





O                       C   4H   9O   2     G     200.0    1000.0  3000.0      1
 9.82774981E+00 3.40335819E-02-1.67583743E-05 4.00635161E-09-3.77164239E-13    2
-6.63687489E+03-1.86493221E+01 5.50455432E+00 3.84923631E-02 2.09295708E-06    3
-3.14168832E-08 1.60591535E-11-5.25830197E+03 5.02847289E+00                   4


H                       C   4H   9O   2     G     200.0    1000.0  3000.0      1
 1.00000000E+00 3.40335819E-02-1.67583743E-05 4.00635161E-09-3.77164239E-13    2
-6.63687489E+03-1.86493221E+01 5.50455432E+00 3.84923631E-02 2.09295708E-06    3
-3.14168832E-08 1.60591535E-11-5.25830197E+03 5.02847289E+00                   4

O2                      C   4H   9O   2     G     200.0    1000.0  3000.0      1
 2.00000000E+00 3.40335819E-02-1.67583743E-05 4.00635161E-09-3.77164239E-13    2
-6.63687489E+03-1.86493221E+01 5.50455432E+00 3.84923631E-02 2.09295708E-06    3
-3.14168832E-08 1.60591535E-11-5.25830197E+03 5.02847289E+00                   4

HO2                     C   4H   9O   2     G     200.0    1000.0  3000.0      1
 3.00000000E+00 3.40335819E-02-1.67583743E-05 4.00635161E-09-3.77164239E-13    2
-6.63687489E+03-1.86493221E+01 5.50455432E+00 3.84923631E-02 2.09295708E-06    3
-3.14168832E-08 1.60591535E-11-5.25830197E+03 5.02847289E+00                   4

H2O                     C   4H   9O   2     G     200.0    1000.0  3000.0      1
 4.00000000E+00 3.40335819E-02-1.67583743E-05 4.00635161E-09-3.77164239E-13    2
-6.63687489E+03-1.86493221E+01 5.50455432E+00 3.84923631E-02 2.09295708E-06    3
-3.14168832E-08 1.60591535E-11-5.25830197E+03 5.02847289E+00                   4

R                       C   4H   9O   2     G     200.0    1000.0  3000.0      1
 5.00000000E+00 3.40335819E-02-1.67583743E-05 4.00635161E-09-3.77164239E-13    2
-6.63687489E+03-1.86493221E+01 5.50455432E+00 3.84923631E-02 2.09295708E-06    3
-3.14168832E-08 1.60591535E-11-5.25830197E+03 5.02847289E+00                   4



END
