THERMO
200.00    1000.00   5000.000

O2                      O   2               G    200.00   1000.00 3000.00      1
 3.13826340E+00 1.87006882E-03-1.07672462E-06 2.89046212E-10-2.96950151E-14    2
-1.19243575E+03 6.20223010E+00 3.78045627E+00-3.11572602E-03 1.06407960E-05    3
-1.09016398E-08 3.78707230E-12-1.21325339E+03 3.66919024E+00                   4
OH                      H   1O   1          G    200.00   1000.00 3000.00      1
 3.23311904E+00 2.14302336E-04 3.84136771E-07-1.87700954E-10 2.50008092E-14    2
 3.48842216E+03 3.69131884E+00 4.11857534E+00-3.21517781E-03 6.49470417E-06    3
-5.78585421E-09 2.05661052E-12 3.27406651E+03-6.92851460E-01                   4
HO2                     H   1O   2          G    200.00   1000.00 3000.00      1
 3.43042129E+00 3.52053666E-03-1.56404475E-06 3.42186801E-10-2.98660600E-14    2
 1.33599409E+02 6.87856246E+00 4.36319264E+00-5.22691853E-03 2.19725435E-05    3
-2.47895468E-08 9.37996312E-12 1.29993795E+02 3.43915453E+00                   4

END


