! =====================================================================
! *              Stanford H2/O2 Mechanism version 1.2                 *
! *       Zekai Hong, David F. Davidson, and Ronald K. Hanson         *
! *                       October 31, 2010                            *
! =====================================================================
!
! ----------------------    How to cite   -----------------------------
!       An Improved H2/O2 Mechanism based on
! Recent Shock Tube/Laser Absorption Measurements
! Zekai Hong, David F. Davidson, Ronald K. Hanson
! Combust. Flame (2010), doi:10.1016/j.combustflame.2010.10.002
!
! -------------      To make suggestions:       -----------------------
! Zekai Hong:			zekai.hong@gmail.com
! Dr. David Davidson: 		dfd@stanford.edu
! Prof. Ronald K. Hanson:	rkhanson@stanford.edu
! ------------         Happy modelling!         -----------------------
!
!
THERMO 
300.000   1000.000  5000.000
O                 L 1/90O   1   00   00   00G   200.000  3500.000  1000.000    1
 2.56942078E+00-8.59741137E-05 4.19484589E-08-1.00177799E-11 1.22833691E-15    2
 2.92175791E+04 4.78433864E+00 3.16826710E+00-3.27931884E-03 6.64306396E-06    3
-6.12806624E-09 2.11265971E-12 2.91222592E+04 2.05193346E+00                   4
END
